scripts/data/pwf/EMG/EMG_base.PWF
TITU
EMG_BASE_2021_ACMUST_COMPLETO                                                   
DOPC IMPR
(Op) E (Op) E (Op) E (Op) E (Op) E (Op) E (Op) E (Op) E (Op) E (Op) E
RCVG L RMON L FILE L CONT L
99999
DCTE
(Mn) ( Val) (Mn) ( Val) (Mn) ( Val) (Mn) ( Val) (Mn) ( Val) (Mn) ( Val) 
BASE   100. DASE   100. TEPA   .001 EXST   .004 TETP     5. TBPA     5.
TLPP     1. TEPR   .001 QLST   .004 TLPR   .001 TLPQ     2. TSBZ    .01
TSBA     5. ASTP    .05 VSTP     5. TLVC   .001 TLTC   .001 TSFR  .1E-7
ZMAX   500. TLPV     .5 VDVM   200. VDVN    40. TUDC   .001 TADC    .01
PGER    30. TPST   .002 VFLD    70. ZMIN   .001 HIST    470 LFIT     10
ACIT     30 LFCV      1 DCIT     10 VSIT     10 LPIT     50 LFLP     10
PDIT     10 LCRT     24 LPRT     60 CSTP     5. ASDC     1.
ICIT     30 DMAX      5 FDIV     2. ICMN    .05 VART     5. TSTP     32
ICMV     .5 APAS    90. CPAR    70. VAVT     2. VAVF     5. VMVF    15.
VPVT     2. VPVF     5. VPMF    10. VSVF    20. VINF     1. VSUP     1.
TLSI     0. NDIR    20. STTR     5. TRPT   100. STIR     1. BFPO     1.
LFPO     .1 TLMT     0. TLMF     0. TLMG     0.                        
99999
DBAR
(Num)OETGb(   nome   )Gl( V)( A)( Pg)( Qg)( Qn)( Qm)(Bc  )( Pl)( Ql)( Sh)Are(Vf)M(1)(2)(3)(4)(5)(6)(7)(8)(9)(10
  245 L2 1INT_LIGHT    11000  0. 85.5.1296-999999999                      1110001                                  
 1704 L2 2CPO----69    11001.1151.811.3356-999999999                      1310001                                  
 1707 L  2SUM----69    1 997-.12                                           21000                                   
 1708 L  3SUM--11.4    31000-3.1                          1.792.7667      351000                                   
 3110 L1  NUM-------G1   950 2.2 7.22   3.  -3.   3.                       31000                                   
 3115 L   NUM-------G2   897-2.1                                           31000                                   
 3120 L1  NUM-------G3   950 -.6 6.82  2.7 -2.7  2.7                      101000                                   
 3124 L1 3MRE(1)--11.4 31000-13.   0.   0.   0.   0.      16.83 1.62       31000                                   
 3138 L  2RDR-------69 2 897-6.2                                           21000                                   
 3139 L  3RDR-----11.4 31000-11.                          6.8681.986       31000                                   
 3140 L1 5UTE-------G1 51010-3.6 2.08 1.23 -1.2 1.23                      101000                                   
 3141 L1  NUM-------G4   894-.62 8.13-1.35  -3.   3.                      101000                                   
 3142 L1 6UGL--------G 61050-4.3 5.01 2.16 -2.1 2.16                      101000                                   
 3143 L  3MRU----11.4   1000-7.9                          2.6021.123       31000                                   
 3145 L  5UTE-------G2 5 913-5.8                                          101000                                   
 3146 L1 7UGY--------G 71000-2.2  .72  1.5 -1.5  1.5                      141000                                   
 3147 L  2CBA-------69 2 959 -7.                                           21000                                   
 3148 L1 7UAN--------G 71000-2.1  .18  .16  -.1  .16                      141000                                   
 3151 L1 6UPT--------G 61000-1.1 6.98 3.65 -3.6 3.65                      141000                                   
 3152 L  1UPL------138 1 986-2.9                                           11000                                   
 3164 L  2UNB-------69 2 848-7.2                                           21000                                   
 3165 L  5UNB-------G1 5 819-7.9                                           31000                                   
 3166 L1 6UNB-------G2 61040-7.9   0.   0.   0.   0.                       31000                                   
 3167 L  8UNB-----G3-4 8 905-7.9                                           31000                                   
 3186 L1 6UGR--------G 61020 13. 4.59 2.37 -2.3 2.37                      141000                                   
 3187 L1 6UEC--------G 61020-4.3 7.51 3.48 -3.4 3.48                      101000                                   
 3188 L1 6UPL--------G 61050-.69 4.69 3.72 -3.7 3.72                      141000                                   
 3189 L1 6UIB3-------G 61000-1.2 7.64 3.66 -3.6 3.66                      141000                                   
 3190 L1 9UBR--------G 61000 -2. 9.31  3.9 -3.9  3.9                      141000                                   
 3191 L1 6UZT--------G  1000-1.4   3.1.478 -2.4  2.4                      141000                                   
 3201 L  3SAM-----11.4 A1000-13.                          10.87 3.47       31000                                   
 3210 L  3LPD-----11.4 31000-9.2                          12.451.474       31000                                   
 3240 L1 BNUM-------24 B1000-2.1   0.   0.   0.   0.      3.6381.213       31000                                   
 3251 L  4MRI-------22  1000-8.7                          4.7561.599      221000                                   
 3252 L  2MRI-------69   984-6.3                                           21000                                   
 3262 L  2LRJ-------69 2 980-6.4                                           21000                                   
 3263 L  3LRJ-----11.4 31000-11.                          4.0241.976       31000                                   
 3270 L  4CTZ(2)----22 41000-5.4                          12.96.7213      221000                                   
 3290 L  4CTZ(1)----22 41000-7.6                          6.387 .439      221000                                   
 3300 L  1ALP------138 11000  0.                                          111000                                   
 3301 L  1LPD------138 1 979-2.4                                           11000                                   
 3302 L  2LPD-------69 2 996-5.1                                          191000                                   
 3303 L  1NUM------138 1 977-2.9                                           11000                                   
 3304 L  2NUM-------69 2 947-4.4                                          191000                                   
 3305 L  1CTZ(2)---138 1 975 -3.                                           11000                                   
 3306 L  2CTZ(2)----69 21014-5.2                          2.2153.423      191000                                   
 3307 L  1MRE(2)---138 1 967-4.1                                           11000                                   
 3308 L  2MRE(2)----69 21014-6.2                                          191000                                   
 3309 L  2MRE(1)----69 2 990-6.9                                           21000                                   
 3310 L  1UBA(2)---138 1 970 -4.                                           11000                                   
 3311 L  2UBA(2)----69 21000-5.4                                          191000                                   
 3312 L  2UBA(1)----69 21000-5.7                                           21000                                   
 3313 L  1VRB(2)---138 1 967-2.9                                           11000                                   
 3314 L  2VRB(2)----69 2 977 -6.                                          191000                                   
 3315 L  2VRB(1)----69 2 976-6.1                                           21000                                   
 3316 L  2UTE-------69 2 962-5.4                                           21000                                   
 3317 L  1TCT------138 1 970-4.2                                           11000                                   
 3318 L  2CTZ(1)----69 21008-5.5                           3.46   0.       71000                                   
 3319 L  2MAU-------69 2 952-4.5                                          191000                                   
 3320 L  2REA-------69 2 8906.08                                           21000                                   
 3321 L  1MAO------138 1102411.3                                           11000                                   
 3322 L  2MAO-------69 210007.64                                          191000                                   
 3323 L  1UGR------138 1102511.4                                           11000                                   
 3324 L  2ALP-------69 2 991-1.9                                           21000                                   
 3325 L  2LRJ(DERIV)69 2 990-6.3                                           21000                                   
 3326 L  2UER-------69 2 958-7.4                                           21000                                   
 3327 L  2UEC-------69 21018 -6.                                           21000                                   
 3328 L  2GCM-------69 2 963-6.8                                           21000                                   
 3329 L  1SMA------138 1 983 2.6                                           11000                                   
 3330 L  1UGY------138 1 979-4.3                                           11000                                   
 3331 L  2SJN-------69 2 901-6.5                                           21000                                   
 3332 L  1UTE------138 1 972-4.4                                           11000                                   
 3333 L  1UTF------138 1 983-3.1                                           11000                                   
 3334 L  2ASD-------69 2 912-5.7                                           21000                                   
 3335 L  2RDR(DER)--69 2 903 -6.                                           21000                                   
 3336 L  2DVN-DERV-69  2 997-5.8                                           21000                                   
 3337 L  1UBR---138    1 976-3.3                                           11000                                   
 3338 L  1P.FIALHO-138 1102711.4                                          211040                                   
 3339 L  1UZT------138 1 985 -3.                                           11000                                   
 3340 L  3MRE(2)--11.4 31000-9.9                           11.32.404       31000                                   
 3341 L  2ENP ------69 21014-7.2                                           21000                                   
 3342 L  1UBA3-----138 1 976-3.6                                           11000                                   
 3343 L  3MAU2---11.4  110005.87                          12.17.6899      221000                                   
 3345 L1 1RB_PFIALHO   1102711.4117.16.668-999999999                      2110401                                  
 3346 L  3ENP ----11.4 31000-11.                          4.202   0.   4.  31000                                   
 3348 L  2MRI(DERIV)69   995-5.9                                           21000                                   
 3349 L  1MAU2---138    102010.6                                           11000                                   
 3350 L  2UGL-------69 21050 -6.                                           21000                                   
 3355 L  3UGL-----11.4 31000-6.7                          .8885.8676       31000                                   
 3370 L  3UBA(1)--11.4 31000-8.1                          8.749-1.05   4.  31000                                   
 3380 L  1FIC_NUM_CTZ2   976 -3.                                           11000                                   
 3381 L  2MRU------69   1015-6.2                                           21000                                   
 3390 L  3UBA(2)--11.4 31000-7.2                          17.37-2.09   5. 221000                                   
 3391 L  3UBA(3)--11.4 31000-6.8                          7.4111.411       31000                                   
 3392 L  2DVN-------69 2 986-6.3                                           21000                                   
 3393 L  3DVN-----11.4 21000-9.9                          5.425.2822       31000                                   
 3394 L  1SAMARCO  138  102511.3                          .4808.5227       91000                                   
 3401 L1 CUGY-------25 C 965-2.4  3.5 1.97 -1.9 1.97                       31000                                   
 3410 L  3ASD-----11.4 31000-10.                          5.843.3554       31000                                   
 3430 L  3VRB(1)--11.4 A1000-10.                          10.29.3659       31000                                   
 3432 L  3VRB(2)--11.4 31000-10.                          7.5793.585       31000                                   
 3434 L  3GCM----11.4  D1000-9.7                          2.885 1.38       31000                                   
 3450 L  3CBA-----11.4 31000-11.                          6.188.1463       31000                                   
 3470 L  4UTE-------22 4 963-5.8                          2.5091.045       31000                                   
 3480 L  3UTE-----11.4 31000-9.5                          7.0253.021       31000                                   
 3500 L  3RCO-----11.4 31000-10.                          2.592.5958       31000                                   
 3510 L  2PRT-------69 2 953-8.7                          8.6973.502       21000                                   
 3511 L  BPRT------22  21000-11.                          3.146   0.  3.6 221000                                   
 3530 L  3SJN-----11.4 31000-12.                          8.498.8781       31000                                   
 3560 L  2RIN-------69 2 891-7.1                                           21000                                   
 3570 L  3RIN----11.4  E1000-11.                          4.819.0209       31000                                   
 3600 L  1UPT------138 1 987-2.9                                           11000                                   
 3645 L  3TCT-----11.4 A1000-8.2                          8.519.0418      221000                                   
 3730 L  3MAU-----11.4 31000-9.4                          13.611.516       31000                                   
 3731 L1 6UBB--------G 61030-3.1 5.13 2.85 -2.8 2.85                      101000                                   
 3732 L  2UBB-------69 2 943-4.7                                           21000                                   
 3750 L  2MAM-------69 2 931-5.5                                           21000                                   
 3762 L  2STM-------69 2 9407.36                                           21000                                   
 3763 L  3STM-----11.4 310001.11                           7.163.167       31000                                   
 3770 L  3MAM-----11.4 31000-10.                          9.816.7631       31000                                   
 3780 L  3MAO-----11.4 310006.16                          3.094-2.09       31000                                   
 3790 L  2SAM-------69 2 850-7.2                                           21000                                   
 3840 L  4UNB-------22 41000-7.9                          .9826.3345       31000                                   
 3950 L  3REA-----11.4 31000-2.4                           15.34.537       31000                                   
 3970 L  1UEB------138 1102611.6                                           11000                                   
 4001 L1 6UEB--------G 6100013.8 8.06-.546 -3.3  3.3                      141000                                   
 4020 L  1VOT_CBA--138   968-3.6                          .2613   0.       61000                                   
 4030 L  AUER-----11.4 A1000-12.                          6.115.3763       31000                                   
 4051 L1 6UER--------G 61020-6.6 1.51 2.01  -2. 2.01                      101000                                   
 4053 L  3SMA----11.4  D1000-3.4                          6.491 .115      221000                                   
 4100 L1 9UTJF-------G 9 951-4.3   0.   0.   0.   0.      .2196   0.      141000                                   
 4101 L  1JFORA----138 1 980-4.3                                           11000                                   
 4600 L  3ALP-----11.4 31000-5.6                          8.007 .345       31000                                   
 4652 L  2RCO-------69 2 978-7.1                                           21000                                   
 4653 L  2CTZ1-FIC--69 2 947-4.4                                           21000                                   
 4654 L  2UBA1-FIC--69 2 903 -6.                                           21000                                   
 4655 L  2VRB2-FIC--69 2 997-5.8                                           21000                                   
 4656 L  2MAU-FIC---69 2 8906.08                                           21000                                   
 6000 L2 1CEMIG         1000  0.   0.   0.-999999999                       21000                                   
 8000 L   PAO-----11.4  10009.28                          3.5021.547      221000                                   
 8001 L  FSAMARCO-34.5   9849.28                                           41000                                   
 9001 L2 1MAU------138 1 970-1.431.859.239-999999999                      1210001                                  
99999
DLIN
(De )d O d(Pa )NcEP ( R% )( X% )(Mvar)(Tap)(Tmn)(Tmx)(Phs)(Bc  )(Cn)(Ce)Ns(Cq)(1)(2)(3)(4)(5)(6)(7)(8)(9)(10
 1704      1707 1 T  11.98 26.42   .56                           44. 44.   44.                                
 1708      1707 1   34.412290.77      1.042 .9451.145       1708  2.  2.32  2.                                
 3110      3240 1     8.72 93.97       .976                       6.  6.    6.                                
 3115      3240 1     8.72 93.97       .976                       6.  6.    6.                                
 3120      3304 1     2.11 89.33       .932                      10. 10.   10.                                
 3124      3309 1    2.464 61.15      .9884 .9531.153       3124 25. 25.32 25.                                
 3139      3138 1    10.32 93.33      1.103 .9261.126       3139 12. 12.32 12.                                
 3140      3470 1   18.031187.13       .956                       4.  4.    4.                                
 3141      3304 1    5.114 70.58       .952                      16. 16.   16.                                
 3142      3350 1    2.696 61.79         .9   .9  1.1      -3350 18. 18.32 18.                                
 3143      3381 1    9.091117.25      .9944 .9531.153       3143  7.  7.32  7.                                
 3145      3470 1   29.179298.58       .948                       2.  2.    2.                                
 3146      3401 1    22.59  93.1         1.                       6.  6.    6.                                
 3148      3401 1   29.762229.85         1.                       2.  2.    2.                                
 3151      3600 1    1.556 43.49       .976                      27. 27.   27.                                
 3152      3600 1 T   .441 1.154  .276                           89. 89.   89.                                
 3165      3840 1   196.21480.12       .952                       2.  2.    2.                                
 3166      3840 1    5.393120.55       .952                       6.  6.    6.                                
 3167      3840 1   170.77 488.2      1.052                       2.  2.    2.                                
 3186      3323 1    2.338 65.29       .976                      28. 28.   28.                                
 3187      3327 1    1.677 43.38       .976                      27. 27.   27.                                
 3188      3152 1    3.255 85.42       .976                      14. 14.   14.                                
 3189      3333 1   1.588343.489         1.                      27. 27.   27.                                
 3190      3337 1       .9   24.         1.                      43. 43.   43.                                
 3191      3339 1      5.8 93.15         1.                       9.  9.    9.                                
 3201      3790 1    4.123 71.18      1.042 .9261.126       3201 12. 12.32 12.                                
 3210      3302 1    9.209 57.47      .9712 .9531.153       3210 25. 25.32 25.                                
 3240      3304 1     5.86104.99       .956                      10. 10.   10.                                
 3251      3252 1    7.002 86.12      1.014 .9531.153       3251 12. 12.32 12.                                
 3252      3348 1     17.5   18.  .226                           55. 55.   55.                                
 3263      3262 1   14.297204.57      1.053 .9531.153       3263  5.  5.32  5.                                
 3290      3318 1    3.828 58.61       .984 .9531.153       3290 25. 25.32 25.                                
 3300       245 1 T         .001                                99999999    0.                                
 3300      3301 1 T   5.19 10.09 2.515                           95. 95.   95.                                
 3300      3305 1 T   6.96 14.76 3.376                           95. 95.   95.                                
 3301      3303 1 T   2.52  5.41 1.276                           95. 95.   95.                                
 3302      3301 1     .729 15.89      1.026                      37. 37.   37.                                
 3302      4652 1 T   11.4 23.22  .362                           23. 23.   23.                                
 3304      3303 1    4.27228.111       .985                      25. 25.   25.                                
 3304      3331 1    26.63  27.4  .344                           23. 23.   23.                                
 3304      3334 1 T   19.6 20.17  .253                           23. 23.   23.                                
 3304      4653 1 T  24.18 24.87  .312                           23. 23.   23.                                
 3305      3270 1 T    1.2  30.5      .9936  .85 1.05      -3270 30. 40.16 30.                                
 3305      3337 1 T   4.12 10.78 2.578                          100.100.  100.                                
 3306      3305 1     .799 15.31      1.053                      37. 37.   37.                                
 3307      3337 1     4.12 10.78 2.578                          100.100.  100.                                
 3308      3307 1     .852 16.01      1.053                      37. 37.   37.                                
 3308      3327 1 T   1.86  4.69  .076                           44. 44.   44.                                
 3308      3341 1 T  20.77 21.37  .286                           23. 23.   23.                                
 3309      3308 1    11.68 12.02  .151                           23. 23.   23.                                
 3310      3313 1 T   1.79  4.68 1.119                           89. 89.   89.                                
 3310      3317 1 T    .91  2.39  .572                           89. 89.   89.                                
 3310      3342 1     2.284.9144 1.139                           95. 95.   95.                                
 3311      3310 1      .81 15.58      1.026                      37. 37.   37.                                
 3312      3311 1     1.44  3.62  .059                           23. 23.   23.                                
 3312      3336 1     4.36  4.49  .056                           23. 23.   23.                                
 3313      3329 1 T   4.43 11.59 2.773                           89. 89.   89.                                
 3314      3313 1      .81 15.58      1.026                      37. 37.   37.                                
 3314      3328 1 T  17.35 17.85  .224                           23. 23.   23.                                
 3315      3147 1    23.84 24.78  .319                           23. 23.   23.                                
 3315      3314 1      .92   .95  .012                           23. 23.   23.                                
 3316      3332 1    1.415 22.66         1.                      25. 25.   25.                                
 3317      3332 1 T   2.49  6.52  1.56                           89. 89.   89.                                
 3318      3306 1     5.84  6.01  .075                           23. 23.   23.                                
 3319      3732 1 T  7.439 7.653  .096                           23. 23.   23.                                
 3319      3750 1 T  16.61 17.93   .22                           23. 23.   23.                                
 3319      9001 1    1.369 15.94         1.                      37. 37.   37.                                
 3320      3322 1    25.51 26.25  .329                           23. 23.   23.                                
 3321      3323 1 T    .56  1.46   .35                           89. 89.   89.                                
 3322      3321 1     1.44  24.8      .9626   .9  1.1       3322 25. 25.32 25.                                
 3322      3762 1 T  13.22 13.61  .171                           23. 23.   23.                                
 3324      3300 1    6.239 41.37         1.                      15. 15.   15.                                
 3325      3262 1    14.95 15.38  .193                           23. 23.   23.                                
 3325      3309 1     31.2  32.1  .403                           23. 23.   23.                                
 3325      3348 1      9.2   9.5  .119                           23. 23.   23.                                
 3326      3328 1    14.81 15.24  .191                           23. 23.   23.                                
 3330      3332 1     3.64  9.52 2.275                           89. 89.   89.                                
 3330      4101 1 T   2.25   6.5 1.581                           89. 89.   89.                                
 3331      3560 1    16.92  17.7  .225                           23. 23.   23.                                
 3333      3303 1     2.99   6.5 1.507                          110.110.  110.                                
 3334      3335 1     9.23  9.49  .119                           23. 23.   23.                                
 3335      3138 1     5.02  5.17  .065                           23. 23.   23.                                
 3335      4654 1   25.40926.141  .328                           22. 22.   22.                                
 3336      3392 1    17.64 18.15                                 19. 19.   19.                                
 3336      4655 1    11.64 11.97   .15                           23. 23.   23.                                
 3338      3321 1 T    .61  1.59  .381                          110.110.  110.                                
 3338      3329 1 T 6.839417.896  4.28                          110.110.  110.                                
 3338      3345 1 T         .001                                99999999    0.                                
 3338      8000 1 T    8.8 110.3      1.021  .91 1.11      -8000  7.  8.32  7.                                
 3339      3152 1     .466 1.219  .292                           89. 89.   89.                                
 3339      3333 1     .465 1.219  .291                           89. 89.   89.                                
 3340      3308 1    9.034 58.17       .957 .9531.153       3340 25. 25.32 25.                                
 3342      3333 1     2.284.9144 1.139                           95. 95.   95.                                
 3343      3349 1    4.397 70.03      1.021  .961.126       3343 15. 25.32 15.                                
 3346      3341 1   16.406175.03      .9871   .9  1.1       3346  6.  6.32  6.                                
 3348      3306 1     14.6   15.  .189                           23. 23.   23.                                
 3349      3394 1   3.76429.8493 2.356                          110.110.  110.                                
 3350      3327 1      6.4  6.59  .083                           23. 23.   23.                                
 3355      3350 1     8.74155.21      .9941 .9531.153       3355  7.  7.32  7.                                
 3370      3312 1    5.301 45.99       .953 .9531.153       3370 25. 25.32 25.                                
 3380      3303 1    1.405 2.975  .685                           95. 95.   95.                                
 3380      3305 1    1.405 2.975  .685                           95. 95.   95.                                
 3381      3350 1   6.789517.082  .277                          110.110.  110.                                
 3390      3310 1      1.2  30.5      .9916  .85 1.05       3390 30. 40.16 30.                                
 3391      3342 1    4.884 70.03       .996 .9261.126       3391 10. 25.32 15.                                
 3393      3392 1     8.92112.04      .9822   .9  1.1       3393  9.  9.32  9.                                
 3394      3338 1    .99842.6126  .625                          110.110.  110.                                
 3401      3330 1    5.599  79.5       .952                      10. 10.   10.                                
 3410      3334 1   12.736110.87        1.1   .9  1.1       3410  6.  6.32  6.                                
 3430      3315 1    9.653 70.14      .9641 .9531.153       3430 12. 12.32 12.                                
 3432      3314 1    9.612 93.51      .9684 .9261.126       3432 12. 12.32 12.                                
 3434      3328 1    9.999160.25      1.009 .9121.112       3434  6.  6.32  6.                                
 3450      3147 1    4.219  92.6      .9822 .9261.126       3450 12. 12.32 12.                                
 3470      3316 1    10.76155.63         1.                       6.  6.    6.                                
 3480      3316 1    9.612 93.51      1.063   .9  1.1       3480 12. 12.32 12.                                
 3500      4652 1   16.962192.47      .9897 .9261.126       3500  5.  5.32  5.                                
 3511      3510 1    6.986119.26       1.09   .9  1.1       3511 10. 10.32 10.                                
 3530      3331 1     6.94 83.31      1.083 .9531.153       3530 12. 12.32 12.                                
 3570      3560 1   11.009 120.3      1.071   .9  1.1       3570  6.  6.32  6.                                
 3645      3317 1    4.397 75.97      1.016 .9261.126       3645 12. 12.32 12.                                
 3730      3319 1    3.589 56.95      1.051 .9261.126       3730 25. 25.32 25.                                
 3731      3732 1    2.837 50.75       .976                      16. 16.   16.                                
 3732      3790 1    46.17 47.51  .596                           23. 23.   23.                                
 3763      3762 1    14.14131.24      1.035   .9  1.1       3763  6.  6.32  6.                                
 3770      3750 1    4.884 70.03      1.052 .9261.126       3770 12. 12.32 12.                                
 3780      3322 1    7.811 72.18      .9772 .9261.126       3780 12. 12.32 12.                                
 3790      3164 1     12.5 12.86  .161                           23. 23.   23.                                
 3840      3164 1      6.3 86.77      1.019 .8861.086       3840 12. 12.32 12.                                
 3950      3320 1    9.268 73.42      .9823 .9261.126       3950 12. 12.32 12.                                
 3970      3323 1     1.61  4.24 1.013                           89. 89.   89.                                
 4001      3970 1    1.815 48.97       .976                      25. 25.   25.                                
 4020      3307 1      2.5   6.5 1.562                          110.110.  110.                                
 4020      3313 1      3.6   9.4  2.25                          110.110.  110.                                
 4030      3326 1    9.091117.25      .9923 .9531.153       4030  7.  7.32  7.                                
 4051      3326 1    4.202 86.71         1.                       8.  8.    8.                                
 4053      3329 1    8.862153.54       .953 .9531.153       4053  6.  6.32  6.                                
 4100      4101 1    .403522.436         1.                      50. 50.   50.                                
 4600      3324 1    7.119 79.68      .9764 .9531.153       4600 12. 12.32 12.                                
 4652      3510 1    20.35 21.29   .27                           23. 23.   23.                                
 4653      3318 1D           .01                                 23. 23.   23.                                
 4654      3312 1D            .1                                99999999  9999                                
 4655      3314 1D           .01                                 23. 23.   23.                                
 4656      3320 1    13.67 14.06  .176                           23. 23.   23.                                
 8000      8001 1     35.6 114.8         1.                       5.  5.    5.                                
99999
DGLT
(G (Vmn) (Vmx) (Vmne (Vmxe
 0    .9  1.05    .9  1.05
 3 1.026  1.03 1.026  1.03
 2   .95  1.05   .95  1.05
 1   .95  1.05   .95  1.05
 5    .9  1.05    .9  1.05
 6    .9  1.05    .9  1.05
 7    .9  1.05    .9  1.05
 8    .9  1.05    .9  1.05
 4 1.026 1.028 1.026 1.028
 9   .95  1.05   .95  1.05
 A   .99 1.001   .99 1.001
 B   .94   .96   .94   .96
 C   .95   .98   .95   .98
 D   .97   .99   .97   .99
 E   .97   .98   .97   .98
99999
DARE
(Ar    (Xchg)     (      Identificacao da area       ) (Xmin) (Xmax)
  1        0.                   NÍVEL DE TENSÃO 138 kV               
  2        0.                    NÍVEL DE TENSÃO 69 kV               
  3        0.                        TRAFOS 69/11,4 kV               
  4        0.                  NÍVEL DE TENSÃO 34,5 kV               
  6        0.                  CARGA VOTORANTIN 138 KV               
  7        0.                          CARGA CIC 69 KV               
  9        0.                     CARGA SAMARCO 138 KV               
 10        0.                            GERAÇÃO 69 kV               
 11        0.                        INTERCÂMBIO LIGHT               
 12        0.                        INTERCÂMBIO CEMIG               
 13        0.                    INTERCÂMBIO ENF 69 kV               
 14        0.                           GERAÇÃO 138 kV               
 19        0.                         TRAFOS 138/69 kV               
 21        0.                  INTERCÂMBIO RB - 345 kV               
 22        0.                       TRAFOS 138/11,4 kV               
 35        0.                     CARGA ENF 69/11,4 kV               
99999
DGBT
(G ( kV)
 1  138.
 2   69.
 F  34.5
 C   25.
 B   24.
 4   22.
 9  13.8
 A  11.8
 3  11.4
 6   6.9
 0   6.6
 7   3.3
 5   2.2
 8    .4
99999
FIM
